<?xml version="1.0" encoding="UTF-8"?>

<!-- generated on 05/30/21 17:17:18 by Eclipse SUMO sumo Version 1.8.0
<configuration xmlns:xsi="http://www.w3.org/2001/XMLSchema-instance" xsi:noNamespaceSchemaLocation="http://sumo.dlr.de/xsd/sumoConfiguration.xsd">

    <input>
        <net-file value="Data/Metro_Intersection.net.xml"/>
        <route-files value="Data/Metro_Intersection.rou.xml"/>
        <additional-files value="Data/Metro_Intersection.add.xml"/>
    </input>

    <time>
        <begin value="0"/>
    </time>

    <processing>
        <lateral-resolution value="0.5"/>
        <ignore-junction-blocker value="100000"/>
    </processing>

    <report>
        <verbose value="true"/>
        <no-step-log value="true"/>
    </report>

    <traci_server>
        <remote-port value="59928"/>
    </traci_server>

</configuration>
